21
Generated with https://api.leruli.com/latest/references/BEG2019,BCE2020,rdkit/bibtex
    C           -3.270042465932    -1.093184537775     0.135044293514
    C           -1.923722019719    -0.874439870095    -0.488759951426
    O           -1.682556653017    -0.475558385174    -1.594886112247
    O           -0.932788431126    -1.205053052555     0.425843717729
    C            0.361024252462    -0.812176240386     0.140281466772
    C            1.280322828874    -1.816935480175    -0.158555330484
    C            2.618486616666    -1.498448300532    -0.391739178703
    C            3.040097989639    -0.166227806573    -0.334305517216
    C            2.120959192168     0.836856214386    -0.034432675756
    C            0.767870449856     0.536771191324     0.209117792929
    C           -0.190836575834     1.619779660913     0.564177039403
    O           -1.372732380586     1.486217110372     0.812694401955
    O            0.402524611958     2.840868739078     0.600057387159
    H           -4.046014592040    -1.066494647381    -0.638956737716
    H           -3.295877460928    -2.042775682954     0.688380090525
    H           -3.426907684599    -0.273945374553     0.854011238174
    H            0.921291319948    -2.845846837436    -0.202067410323
    H            3.330902937845    -2.292662848468    -0.625199309904
    H            4.084742079460     0.090220249637    -0.519566049922
    H            2.441861215628     1.876254566058     0.017967692111
    H           -0.306985352377     3.465358846080     0.834185737097
